Alpine_SI_new_new.dss
Clear

New Circuit.ALPINE_Reduced bus1=SourceBus basekv=12 R1=0.063 X1=0.5495 R0=0.0152 X0=1.3295 Sequence=pos
New Line.0355_03551 Phases=3 bus1=0355.1.2.3 bus2=03551.1.2.3 Units=km Length=0.03392424 Rmatrix=[ 0.124562554681    0.0376202974628    0.0376202974628| 0.0376202974628     0.124562554681    0.0376202974628| 0.0376202974628    0.0376202974628     0.124562554681|] Xmatrix=[ 0.61209536308     0.234470691164     0.234470691164| 0.234470691164      0.61209536308     0.234470691164| 0.234470691164     0.234470691164      0.61209536308|] Cmatrix=[0                  0                  0| 0                  0                  0| 0                  0                  0|]
New Line.03551_035512 Phases=3 bus1=03551.1.2.3 bus2=035512.1.2.3 Units=km Length=0.62195964 Rmatrix=[ 0.133183805772    0.0333094002347    0.0333094148392| 0.0333094002347     0.133183825637    0.0333094250755| 0.0333094148392    0.0333094250755     0.133183987177|] Xmatrix=[0.615038637994     0.232998358606     0.232998405001| 0.232998358606     0.615038680232     0.232998426742| 0.232998405001     0.232998426742     0.615039008886|] Cmatrix=[0                  0                  0| 0                  0                  0| 0                  0                  0|]
New Line.035512_03551201 Phases=3 bus1=035512.1.2.3 bus2=03551201.1.2.3 Units=km Length=0.02523744 Rmatrix=[ 1.14752843395     0.137029746282     0.137029746282| 0.137029746282      1.14752843395     0.137029746282| 0.137029746282     0.137029746282      1.14752843395|] Xmatrix=[0.879811898513     0.356189851269     0.356189851269| 0.356189851269     0.879811898513     0.356189851269| 0.356189851269     0.356189851269     0.879811898513|] Cmatrix=[0                  0                  0| 0                  0                  0| 0                  0                  0|]
New Line.035512_035513 Phases=3 bus1=035512.1.2.3 bus2=035513.1.2.3 Units=km Length=0.12292584 Rmatrix=[ 0.133530183727    0.0331364829396    0.0331364829396| 0.0331364829396     0.133530183727    0.0331364829396| 0.0331364829396    0.0331364829396     0.133530183727|] Xmatrix=[0.615157480315     0.232939632546     0.232939632546| 0.232939632546     0.615157480315     0.232939632546| 0.232939632546     0.232939632546     0.615157480315|] Cmatrix=[0                  0                  0| 0                  0                  0| 0                  0                  0|]
New Line.035513_03551314 Phases=3 bus1=035513.1.2.3 bus2=03551314.1.2.3 Units=km Length=0.3979164 Rmatrix=[ 1.07490369175     0.138221618857      0.13822160631| 0.138221618857      1.07490386199     0.138221618748|  0.13822160631     0.138221618748      1.07490369175|] Xmatrix=[0.836956411929     0.347660788796     0.347660770095| 0.347660788796     0.836956348005     0.347660788824| 0.347660770095     0.347660788824     0.836956411929|] Cmatrix=[0                  0                  0| 0                  0                  0| 0                  0                  0|]
New Line.035513_03552576 Phases=3 bus1=035513.1.2.3 bus2=03552576.1.2.3 Units=km Length=1.9216421 Rmatrix=[ 0.237670551557    0.0604018595121    0.0604019296526| 0.0604018595121     0.237670908053    0.0604019702629| 0.0604019296526    0.0604019702629     0.237671640543|] Xmatrix=[0.648437947829     0.245360512646      0.24536063105| 0.245360512646     0.648438354625     0.245360702942|  0.24536063105     0.245360702942     0.648439126199|] Cmatrix=[0                  0                  0| 0                  0                  0| 0                  0                  0|]
New Line.03551314_03551328 Phases=1 bus1=03551314.1 bus2=03551328.1 Units=km Length=0.865632 Rmatrix=1.0433017 Xmatrix=0.82943929 Cmatrix=0
New Line.03551314_03551374 Phases=2 bus1=03551314.2.3 bus2=03551374.2.3 Units=km Length=0.59158632 Rmatrix=[  1.4501449835     0.137413763119| 0.137413763119       1.4501449835|] Xmatrix=[0.892775705694     0.379835025712| 0.379835025712     0.892775705694|] Cmatrix=[0                  0| 0                  0|]
New Line.03552576_03552577 Phases=3 bus1=03552576.1.2.3 bus2=03552577.1.2.3 Units=km Length=0.0454152 Rmatrix=[ 0.251312335958    0.0629921259843    0.0629921259843| 0.0629921259843     0.251312335958    0.0629921259843| 0.0629921259843    0.0629921259843     0.251312335958|] Xmatrix=[0.652230971129     0.246719160105     0.246719160105| 0.246719160105     0.652230971129     0.246719160105| 0.246719160105     0.246719160105     0.652230971129|] Cmatrix=[0                  0                  0| 0                  0                  0| 0                  0                  0|]
New Transformer.355_1686B Phases=3 Windings=2 Buses=[03551328.1 03551328A.1] Conns=[wye wye] kVs=[12  12] kVAs=[20000  20000] %Noloadloss=0 %imag=0
New Transformer.ALPINE Phases=3 Windings=2 Buses=[SourceBus 0355] Conns=[wye wye] kVs=[12  12] kVAs=[20000  20000] %Noloadloss=0 %imag=0 sub=y
New Regcontrol.regSubstation transformer=ALPINE winding=2 vreg=121.2 band=2 ptratio=57.75 PTPhase=1
New Regcontrol.reg2 transformer=355_1686B winding=2 vreg=120 band=2 ptratio=57.75 PTPhase=1
New Capacitor.355_1385CW Phases=3 Bus1=03552577 Kvar=1350 Kv=12 Conn=wye states=1 Numsteps=20
New Capacitor.addedShuntCap_03551 Phases=3 Bus1=03551.1.2.3 Kvar=0 Kv=6.9282 Cmatrix=[  0.013824  -0.0024819  -0.0009048| -0.0024819    0.014553   -0.001544| -0.0009048   -0.001544    0.007191|]
New Capacitor.addedShuntCap_035512 Phases=3 Bus1=035512.1.2.3 Kvar=0 Kv=6.9282 Cmatrix=[   0.026622  -0.0045271 -0.00078475|  -0.0045271    0.023777  -0.0013488| -0.00078475  -0.0013488   0.0063004|]
New Capacitor.addedShuntCap_03551201 Phases=3 Bus1=03551201.1.2.3 Kvar=0 Kv=6.9282 Cmatrix=[0.00069194           0           0|          0  0.00069195           0|          0           0  0.00069194|]
New Capacitor.addedShuntCap_035513 Phases=3 Bus1=035513.1.2.3 Kvar=0 Kv=6.9282 Cmatrix=[ 0.076457   -0.010299   -0.011028| -0.010299     0.06278  -0.0083018| -0.011028  -0.0083018    0.066693|]
New Capacitor.addedShuntCap_03551374 Phases=2 Bus1=03551374.2.3 Kvar=0 Kv=6.9282 Cmatrix=[ 0.0094912  -0.0020898| -0.0020898   0.0094912|]
New Capacitor.addedShuntCap_03552577 Phases=3 Bus1=03552577.1.2.3 Kvar=0 Kv=6.9282 Cmatrix=[  0.026745  -0.0045222  -0.0046585| -0.0045222    0.028292  -0.0045222| -0.0046585  -0.0045222    0.026357|]
New Capcontrol.capctrl_355_1385CW Element=line.03552576_03552577 Capacitor=355_1385CW Type=voltage CTRatio=100 OFFsetting=125 ONsetting=119 PTPhase=3 PTRatio=57.75 Vmax=123 Vmin=119 VoltOverride=TRUE
New XYCurve.myeff npts=4 Xarray=[0   25   75  100] Yarray=[1  1  1  1]
New XYCurve.mypvst npts=4 Xarray=[0.1         0.2         0.4           1] Yarray=[1  1  1  1]
New XYCurve.CurveFor_InvForPV_03551.1_from_03551.1 npts=6 Xarray=[0.5        0.95        0.98        1.02        1.05         1.5] Yarray=[1  1  0  0 -1 -1]
New XYCurve.CurveFor_InvForPV_03551.2_from_03551.2 npts=6 Xarray=[0.5        0.95        0.98        1.02        1.05         1.5] Yarray=[1  1  0  0 -1 -1]
New XYCurve.CurveFor_InvForPV_03551.3_from_03551.3 npts=6 Xarray=[0.5        0.95        0.98        1.02        1.05         1.5] Yarray=[1  1  0  0 -1 -1]
New XYCurve.CurveFor_InvForPV_03551.1_from_035511.1 npts=6 Xarray=[0.5        0.95        0.98        1.02        1.05         1.5] Yarray=[1  1  0  0 -1 -1]
New XYCurve.CurveFor_InvForPV_035512.1_from_035511.1 npts=6 Xarray=[0.5        0.95        0.98        1.02        1.05         1.5] Yarray=[1  1  0  0 -1 -1]
New XYCurve.CurveFor_InvForPV_03551.1_from_035510A.1 npts=6 Xarray=[0.5        0.95        0.98        1.02        1.05         1.5] Yarray=[1  1  0  0 -1 -1]
New XYCurve.CurveFor_InvForPV_035512.1_from_035510A.1 npts=6 Xarray=[0.5        0.95        0.98        1.02        1.05         1.5] Yarray=[1  1  0  0 -1 -1]
New XYCurve.CurveFor_InvForPV_035512.1_from_035512.1 npts=6 Xarray=[0.5        0.95        0.98        1.02        1.05         1.5] Yarray=[1  1  0  0 -1 -1]
New XYCurve.CurveFor_InvForPV_035512.2_from_035512.2 npts=6 Xarray=[0.5        0.95        0.98        1.02        1.05         1.5] Yarray=[1  1  0  0 -1 -1]
New XYCurve.CurveFor_InvForPV_035512.3_from_035512.3 npts=6 Xarray=[0.5        0.95        0.98        1.02        1.05         1.5] Yarray=[1  1  0  0 -1 -1]
New XYCurve.CurveFor_InvForPV_03551201.1_from_03551201.1 npts=6 Xarray=[0.5        0.95        0.98        1.02        1.05         1.5] Yarray=[1  1  0  0 -1 -1]
New XYCurve.CurveFor_InvForPV_03551201.3_from_03551201.3 npts=6 Xarray=[0.5        0.95        0.98        1.02        1.05         1.5] Yarray=[1  1  0  0 -1 -1]
New XYCurve.CurveFor_InvForPV_035513.1_from_03551306.1 npts=6 Xarray=[0.5        0.95        0.98        1.02        1.05         1.5] Yarray=[1  1  0  0 -1 -1]
New XYCurve.CurveFor_InvForPV_03551314.1_from_03551306.1 npts=6 Xarray=[0.5        0.95        0.98        1.02        1.05         1.5] Yarray=[1  1  0  0 -1 -1]
New XYCurve.CurveFor_InvForPV_035513.2_from_03551306.2 npts=6 Xarray=[0.5        0.95        0.98        1.02        1.05         1.5] Yarray=[1  1  0  0 -1 -1]
New XYCurve.CurveFor_InvForPV_03551314.2_from_03551306.2 npts=6 Xarray=[0.50001     0.95001     0.98001        1.02        1.05         1.5] Yarray=[1  1  0  0 -1 -1]
New XYCurve.CurveFor_InvForPV_035513.3_from_03551306.3 npts=6 Xarray=[0.5        0.95        0.98        1.02        1.05         1.5] Yarray=[1  1  0  0 -1 -1]
New XYCurve.CurveFor_InvForPV_03551314.3_from_03551306.3 npts=6 Xarray=[0.5        0.95        0.98        1.02        1.05         1.5] Yarray=[1  1  0  0 -1 -1]
New XYCurve.CurveFor_InvForPV_035513.1_from_035514.1 npts=6 Xarray=[0.5        0.95        0.98        1.02        1.05         1.5] Yarray=[1  1  0  0 -1 -1]
New XYCurve.CurveFor_InvForPV_03552576.1_from_035514.1 npts=6 Xarray=[0.5        0.95        0.98        1.02        1.05         1.5] Yarray=[1  1  0  0 -1 -1]
New XYCurve.CurveFor_InvForPV_035513.2_from_035514.2 npts=6 Xarray=[0.5        0.95        0.98        1.02        1.05         1.5] Yarray=[1  1  0  0 -1 -1]
New XYCurve.CurveFor_InvForPV_03552576.2_from_035514.2 npts=6 Xarray=[0.5        0.95        0.98        1.02        1.05         1.5] Yarray=[1  1  0  0 -1 -1]
New XYCurve.CurveFor_InvForPV_035513.3_from_035514.3 npts=6 Xarray=[0.5        0.95        0.98        1.02        1.05         1.5] Yarray=[1  1  0  0 -1 -1]
New XYCurve.CurveFor_InvForPV_03552576.3_from_035514.3 npts=6 Xarray=[0.5        0.95        0.98        1.02        1.05         1.5] Yarray=[1  1  0  0 -1 -1]
New XYCurve.CurveFor_InvForPV_035513.1_from_03551301.1 npts=6 Xarray=[0.5        0.95        0.98        1.02        1.05         1.5] Yarray=[1  1  0  0 -1 -1]
New XYCurve.CurveFor_InvForPV_035513.3_from_03551301.3 npts=6 Xarray=[0.5        0.95        0.98        1.02        1.05         1.5] Yarray=[1  1  0  0 -1 -1]
New XYCurve.CurveFor_InvForPV_035513.1_from_03551302.1 npts=6 Xarray=[0.5        0.95        0.98        1.02        1.05         1.5] Yarray=[1  1  0  0 -1 -1]
New XYCurve.CurveFor_InvForPV_035513.3_from_03551302.3 npts=6 Xarray=[0.5        0.95        0.98        1.02        1.05         1.5] Yarray=[1  1  0  0 -1 -1]
New XYCurve.CurveFor_InvForPV_035513.1_from_03551307.1 npts=6 Xarray=[0.5        0.95        0.98        1.02        1.05         1.5] Yarray=[1  1  0  0 -1 -1]
New XYCurve.CurveFor_InvForPV_03551314.1_from_03551307.1 npts=6 Xarray=[0.5        0.95        0.98        1.02        1.05         1.5] Yarray=[1  1  0  0 -1 -1]
New XYCurve.CurveFor_InvForPV_035513.3_from_03551307.3 npts=6 Xarray=[0.5        0.95        0.98        1.02        1.05         1.5] Yarray=[1  1  0  0 -1 -1]
New XYCurve.CurveFor_InvForPV_03551314.3_from_03551307.3 npts=6 Xarray=[0.5        0.95        0.98        1.02        1.05         1.5] Yarray=[1  1  0  0 -1 -1]
New XYCurve.CurveFor_InvForPV_035513.1_from_03551308.1 npts=6 Xarray=[0.5        0.95        0.98        1.02        1.05         1.5] Yarray=[1  1  0  0 -1 -1]
New XYCurve.CurveFor_InvForPV_03551314.1_from_03551308.1 npts=6 Xarray=[0.5        0.95        0.98        1.02        1.05         1.5] Yarray=[1  1  0  0 -1 -1]
New XYCurve.CurveFor_InvForPV_035513.2_from_03551308.2 npts=6 Xarray=[0.5        0.95        0.98        1.02        1.05         1.5] Yarray=[1  1  0  0 -1 -1]
New XYCurve.CurveFor_InvForPV_03551314.2_from_03551308.2 npts=6 Xarray=[0.50001     0.95001     0.98001        1.02        1.05         1.5] Yarray=[1  1  0  0 -1 -1]
New XYCurve.CurveFor_InvForPV_035513.3_from_03551308.3 npts=6 Xarray=[0.5        0.95        0.98        1.02        1.05         1.5] Yarray=[1  1  0  0 -1 -1]
New XYCurve.CurveFor_InvForPV_03551314.3_from_03551308.3 npts=6 Xarray=[0.5        0.95        0.98        1.02        1.05         1.5] Yarray=[1  1  0  0 -1 -1]
New XYCurve.CurveFor_InvForPV_035513.1_from_03551308A.1 npts=6 Xarray=[0.5        0.95        0.98        1.02        1.05         1.5] Yarray=[1  1  0  0 -1 -1]
New XYCurve.CurveFor_InvForPV_03551314.1_from_03551308A.1 npts=6 Xarray=[0.5        0.95        0.98        1.02        1.05         1.5] Yarray=[1  1  0  0 -1 -1]
New XYCurve.CurveFor_InvForPV_035513.3_from_03551308A.3 npts=6 Xarray=[0.5        0.95        0.98        1.02        1.05         1.5] Yarray=[1  1  0  0 -1 -1]
New XYCurve.CurveFor_InvForPV_03551314.3_from_03551308A.3 npts=6 Xarray=[0.5        0.95        0.98        1.02        1.05         1.5] Yarray=[1  1  0  0 -1 -1]
New XYCurve.CurveFor_InvForPV_035513.1_from_03551309.1 npts=6 Xarray=[0.5        0.95        0.98        1.02        1.05         1.5] Yarray=[1  1  0  0 -1 -1]
New XYCurve.CurveFor_InvForPV_03551314.1_from_03551309.1 npts=6 Xarray=[0.5        0.95        0.98        1.02        1.05         1.5] Yarray=[1  1  0  0 -1 -1]
New XYCurve.CurveFor_InvForPV_035513.3_from_03551309.3 npts=6 Xarray=[0.5        0.95        0.98        1.02        1.05         1.5] Yarray=[1  1  0  0 -1 -1]
New XYCurve.CurveFor_InvForPV_03551314.3_from_03551309.3 npts=6 Xarray=[0.5        0.95        0.98        1.02        1.05         1.5] Yarray=[1  1  0  0 -1 -1]
New XYCurve.CurveFor_InvForPV_035513.1_from_03551310.1 npts=6 Xarray=[0.5        0.95        0.98        1.02        1.05         1.5] Yarray=[1  1  0  0 -1 -1]
New XYCurve.CurveFor_InvForPV_03551314.1_from_03551310.1 npts=6 Xarray=[0.5        0.95        0.98        1.02        1.05         1.5] Yarray=[1  1  0  0 -1 -1]
New XYCurve.CurveFor_InvForPV_035513.3_from_03551310.3 npts=6 Xarray=[0.5        0.95        0.98        1.02        1.05         1.5] Yarray=[1  1  0  0 -1 -1]
New XYCurve.CurveFor_InvForPV_03551314.3_from_03551310.3 npts=6 Xarray=[0.5        0.95        0.98        1.02        1.05         1.5] Yarray=[1  1  0  0 -1 -1]
New XYCurve.CurveFor_InvForPV_035513.1_from_03551311.1 npts=6 Xarray=[0.5        0.95        0.98        1.02        1.05         1.5] Yarray=[1  1  0  0 -1 -1]
New XYCurve.CurveFor_InvForPV_03551314.1_from_03551311.1 npts=6 Xarray=[0.5        0.95        0.98        1.02        1.05         1.5] Yarray=[1  1  0  0 -1 -1]
New XYCurve.CurveFor_InvForPV_035513.3_from_03551311.3 npts=6 Xarray=[0.5        0.95        0.98        1.02        1.05         1.5] Yarray=[1  1  0  0 -1 -1]
New XYCurve.CurveFor_InvForPV_03551314.3_from_03551311.3 npts=6 Xarray=[0.5        0.95        0.98        1.02        1.05         1.5] Yarray=[1  1  0  0 -1 -1]
New XYCurve.CurveFor_InvForPV_03551314.1_from_03551315.1 npts=6 Xarray=[0.5        0.95        0.98        1.02        1.05         1.5] Yarray=[1  1  0  0 -1 -1]
New XYCurve.CurveFor_InvForPV_03551328.1_from_03551315.1 npts=6 Xarray=[0.5        0.95        0.98        1.02        1.05         1.5] Yarray=[1  1  0  0 -1 -1]
New XYCurve.CurveFor_InvForPV_03551314.1_from_03551319.1 npts=6 Xarray=[0.5        0.95        0.98        1.02        1.05         1.5] Yarray=[1  1  0  0 -1 -1]
New XYCurve.CurveFor_InvForPV_03551328.1_from_03551319.1 npts=6 Xarray=[0.5        0.95        0.98        1.02        1.05         1.5] Yarray=[1  1  0  0 -1 -1]
New XYCurve.CurveFor_InvForPV_03551314.1_from_03551365.1 npts=6 Xarray=[0.5        0.95        0.98        1.02        1.05         1.5] Yarray=[1  1  0  0 -1 -1]
New XYCurve.CurveFor_InvForPV_03551328.1_from_03551365.1 npts=6 Xarray=[0.5        0.95        0.98        1.02        1.05         1.5] Yarray=[1  1  0  0 -1 -1]
New XYCurve.CurveFor_InvForPV_03551314.1_from_03551320.1 npts=6 Xarray=[0.5        0.95        0.98        1.02        1.05         1.5] Yarray=[1  1  0  0 -1 -1]
New XYCurve.CurveFor_InvForPV_03551328.1_from_03551320.1 npts=6 Xarray=[0.5        0.95        0.98        1.02        1.05         1.5] Yarray=[1  1  0  0 -1 -1]
New XYCurve.CurveFor_InvForPV_03551314.1_from_03551321.1 npts=6 Xarray=[0.5        0.95        0.98        1.02        1.05         1.5] Yarray=[1  1  0  0 -1 -1]
New XYCurve.CurveFor_InvForPV_03551328.1_from_03551321.1 npts=6 Xarray=[0.5        0.95        0.98        1.02        1.05         1.5] Yarray=[1  1  0  0 -1 -1]
New XYCurve.CurveFor_InvForPV_03551314.1_from_03551322.1 npts=6 Xarray=[0.5        0.95        0.98        1.02        1.05         1.5] Yarray=[1  1  0  0 -1 -1]
New XYCurve.CurveFor_InvForPV_03551328.1_from_03551322.1 npts=6 Xarray=[0.5        0.95        0.98        1.02        1.05         1.5] Yarray=[1  1  0  0 -1 -1]
New XYCurve.CurveFor_InvForPV_03551314.1_from_03551323.1 npts=6 Xarray=[0.5        0.95        0.98        1.02        1.05         1.5] Yarray=[1  1  0  0 -1 -1]
New XYCurve.CurveFor_InvForPV_03551328.1_from_03551323.1 npts=6 Xarray=[0.5        0.95        0.98        1.02        1.05         1.5] Yarray=[1  1  0  0 -1 -1]
New XYCurve.CurveFor_InvForPV_03551314.1_from_03551324.1 npts=6 Xarray=[0.5        0.95        0.98        1.02        1.05         1.5] Yarray=[1  1  0  0 -1 -1]
New XYCurve.CurveFor_InvForPV_03551328.1_from_03551324.1 npts=6 Xarray=[0.5        0.95        0.98        1.02        1.05         1.5] Yarray=[1  1  0  0 -1 -1]
New XYCurve.CurveFor_InvForPV_03551314.1_from_03551326.1 npts=6 Xarray=[0.5        0.95        0.98        1.02        1.05         1.5] Yarray=[1  1  0  0 -1 -1]
New XYCurve.CurveFor_InvForPV_03551328.1_from_03551326.1 npts=6 Xarray=[0.5        0.95        0.98        1.02        1.05         1.5] Yarray=[1  1  0  0 -1 -1]
New XYCurve.CurveFor_InvForPV_03551314.1_from_03551325.1 npts=6 Xarray=[0.5        0.95        0.98        1.02        1.05         1.5] Yarray=[1  1  0  0 -1 -1]
New XYCurve.CurveFor_InvForPV_03551328.1_from_03551325.1 npts=6 Xarray=[0.5        0.95        0.98        1.02        1.05         1.5] Yarray=[1  1  0  0 -1 -1]
New XYCurve.CurveFor_InvForPV_03551328.1_from_03551327.1 npts=6 Xarray=[0.5        0.95        0.98        1.02        1.05         1.5] Yarray=[1  1  0  0 -1 -1]
New XYCurve.CurveFor_InvForPV_03551328A.1_from_03551328A.1 npts=6 Xarray=[0.5        0.95        0.98        1.02        1.05         1.5] Yarray=[1  1  0  0 -1 -1]
New XYCurve.CurveFor_InvForPV_03551328A.1_from_03551329.1 npts=6 Xarray=[0.5        0.95        0.98        1.02        1.05         1.5] Yarray=[1  1  0  0 -1 -1]
New XYCurve.CurveFor_InvForPV_03551328A.1_from_03551330.1 npts=6 Xarray=[0.5        0.95        0.98        1.02        1.05         1.5] Yarray=[1  1  0  0 -1 -1]
New XYCurve.CurveFor_InvForPV_03551328A.1_from_03551331.1 npts=6 Xarray=[0.5        0.95        0.98        1.02        1.05         1.5] Yarray=[1  1  0  0 -1 -1]
New XYCurve.CurveFor_InvForPV_03551328.1_from_03551335.1 npts=6 Xarray=[0.5        0.95        0.98        1.02        1.05         1.5] Yarray=[1  1  0  0 -1 -1]
New XYCurve.CurveFor_InvForPV_03551328.1_from_03551346.1 npts=6 Xarray=[0.5        0.95        0.98        1.02        1.05         1.5] Yarray=[1  1  0  0 -1 -1]
New XYCurve.CurveFor_InvForPV_03551328.1_from_03551336.1 npts=6 Xarray=[0.5        0.95        0.98        1.02        1.05         1.5] Yarray=[1  1  0  0 -1 -1]
New XYCurve.CurveFor_InvForPV_03551328.1_from_03551337.1 npts=6 Xarray=[0.5        0.95        0.98        1.02        1.05         1.5] Yarray=[1  1  0  0 -1 -1]
New XYCurve.CurveFor_InvForPV_03551328.1_from_03551339.1 npts=6 Xarray=[0.5        0.95        0.98        1.02        1.05         1.5] Yarray=[1  1  0  0 -1 -1]
New XYCurve.CurveFor_InvForPV_03551328.1_from_03551342.1 npts=6 Xarray=[0.5        0.95        0.98        1.02        1.05         1.5] Yarray=[1  1  0  0 -1 -1]
New XYCurve.CurveFor_InvForPV_03551328.1_from_03551337A.1 npts=6 Xarray=[0.5        0.95        0.98        1.02        1.05         1.5] Yarray=[1  1  0  0 -1 -1]
New XYCurve.CurveFor_InvForPV_03551328.1_from_03551340.1 npts=6 Xarray=[0.5        0.95        0.98        1.02        1.05         1.5] Yarray=[1  1  0  0 -1 -1]
New XYCurve.CurveFor_InvForPV_03551328.1_from_03551341.1 npts=6 Xarray=[0.5        0.95        0.98        1.02        1.05         1.5] Yarray=[1  1  0  0 -1 -1]
New XYCurve.CurveFor_InvForPV_03551328.1_from_03551343.1 npts=6 Xarray=[0.5        0.95        0.98        1.02        1.05         1.5] Yarray=[1  1  0  0 -1 -1]
New XYCurve.CurveFor_InvForPV_03551374.2_from_03551367A.2 npts=6 Xarray=[0.5        0.95        0.98        1.02        1.05         1.5] Yarray=[1  1  0  0 -1 -1]
New XYCurve.CurveFor_InvForPV_03551374.3_from_03551367A.3 npts=6 Xarray=[0.5        0.95        0.98        1.02        1.05         1.5] Yarray=[1  1  0  0 -1 -1]
New XYCurve.CurveFor_InvForPV_03551374.2_from_03551368.2 npts=6 Xarray=[0.5        0.95        0.98        1.02        1.05         1.5] Yarray=[1  1  0  0 -1 -1]
New XYCurve.CurveFor_InvForPV_03551374.3_from_03551368.2 npts=6 Xarray=[0.50001     0.95001     0.98001        1.02        1.05         1.5] Yarray=[1  1  0  0 -1 -1]
New XYCurve.CurveFor_InvForPV_03551374.2_from_03551368.3 npts=6 Xarray=[0.5        0.95        0.98        1.02        1.05         1.5] Yarray=[1  1  0  0 -1 -1]
New XYCurve.CurveFor_InvForPV_03551374.3_from_03551368.3 npts=6 Xarray=[0.5        0.95        0.98        1.02        1.05         1.5] Yarray=[1  1  0  0 -1 -1]
New XYCurve.CurveFor_InvForPV_03551374.2_from_03551369.2 npts=6 Xarray=[0.5        0.95        0.98        1.02        1.05         1.5] Yarray=[1  1  0  0 -1 -1]
New XYCurve.CurveFor_InvForPV_03551374.3_from_03551369.2 npts=6 Xarray=[0.50001     0.95001     0.98001        1.02        1.05         1.5] Yarray=[1  1  0  0 -1 -1]
New XYCurve.CurveFor_InvForPV_03551374.2_from_03551369.3 npts=6 Xarray=[0.5        0.95        0.98        1.02        1.05         1.5] Yarray=[1  1  0  0 -1 -1]
New XYCurve.CurveFor_InvForPV_03551374.3_from_03551369.3 npts=6 Xarray=[0.5        0.95        0.98        1.02        1.05         1.5] Yarray=[1  1  0  0 -1 -1]
New XYCurve.CurveFor_InvForPV_03551374.2_from_03551370.2 npts=6 Xarray=[0.5        0.95        0.98        1.02        1.05         1.5] Yarray=[1  1  0  0 -1 -1]
New XYCurve.CurveFor_InvForPV_03551374.3_from_03551370.2 npts=6 Xarray=[0.50001     0.95001     0.98001        1.02        1.05         1.5] Yarray=[1  1  0  0 -1 -1]
New XYCurve.CurveFor_InvForPV_03551374.2_from_03551370.3 npts=6 Xarray=[0.5        0.95        0.98        1.02        1.05         1.5] Yarray=[1  1  0  0 -1 -1]
New XYCurve.CurveFor_InvForPV_03551374.3_from_03551370.3 npts=6 Xarray=[0.5        0.95        0.98        1.02        1.05         1.5] Yarray=[1  1  0  0 -1 -1]
New XYCurve.CurveFor_InvForPV_03551374.2_from_03551371.2 npts=6 Xarray=[0.5        0.95        0.98        1.02        1.05         1.5] Yarray=[1  1  0  0 -1 -1]
New XYCurve.CurveFor_InvForPV_03551374.3_from_03551371.2 npts=6 Xarray=[0.50001     0.95001     0.98001        1.02        1.05         1.5] Yarray=[1  1  0  0 -1 -1]
New XYCurve.CurveFor_InvForPV_03551374.2_from_03551371.3 npts=6 Xarray=[0.5        0.95        0.98        1.02        1.05         1.5] Yarray=[1  1  0  0 -1 -1]
New XYCurve.CurveFor_InvForPV_03551374.3_from_03551371.3 npts=6 Xarray=[0.5        0.95        0.98        1.02        1.05         1.5] Yarray=[1  1  0  0 -1 -1]
New XYCurve.CurveFor_InvForPV_03551374.2_from_03551372.2 npts=6 Xarray=[0.5        0.95        0.98        1.02        1.05         1.5] Yarray=[1  1  0  0 -1 -1]
New XYCurve.CurveFor_InvForPV_03551374.3_from_03551372.2 npts=6 Xarray=[0.50001     0.95001     0.98001        1.02        1.05         1.5] Yarray=[1  1  0  0 -1 -1]
New XYCurve.CurveFor_InvForPV_03551374.2_from_03551372.3 npts=6 Xarray=[0.5        0.95        0.98        1.02        1.05         1.5] Yarray=[1  1  0  0 -1 -1]
New XYCurve.CurveFor_InvForPV_03551374.3_from_03551372.3 npts=6 Xarray=[0.5        0.95        0.98        1.02        1.05         1.5] Yarray=[1  1  0  0 -1 -1]
New XYCurve.CurveFor_InvForPV_03551374.2_from_03551373.2 npts=6 Xarray=[0.5        0.95        0.98        1.02        1.05         1.5] Yarray=[1  1  0  0 -1 -1]
New XYCurve.CurveFor_InvForPV_03551374.3_from_03551373.2 npts=6 Xarray=[0.50001     0.95001     0.98001        1.02        1.05         1.5] Yarray=[1  1  0  0 -1 -1]
New XYCurve.CurveFor_InvForPV_03551374.3_from_03551373.3 npts=6 Xarray=[0.5        0.95        0.98        1.02        1.05         1.5] Yarray=[1  1  0  0 -1 -1]
New XYCurve.CurveFor_InvForPV_03551374.2_from_03551388.2 npts=6 Xarray=[0.5        0.95        0.98        1.02        1.05         1.5] Yarray=[1  1  0  0 -1 -1]
New XYCurve.CurveFor_InvForPV_03551374.3_from_03551388.2 npts=6 Xarray=[0.50001     0.95001     0.98001        1.02        1.05         1.5] Yarray=[1  1  0  0 -1 -1]
New XYCurve.CurveFor_InvForPV_03551374.2_from_03551388.3 npts=6 Xarray=[0.5        0.95        0.98        1.02        1.05         1.5] Yarray=[1  1  0  0 -1 -1]
New XYCurve.CurveFor_InvForPV_03551374.3_from_03551388.3 npts=6 Xarray=[0.5        0.95        0.98        1.02        1.05         1.5] Yarray=[1  1  0  0 -1 -1]
New XYCurve.CurveFor_InvForPV_03551374.2_from_03551374.2 npts=6 Xarray=[0.5        0.95        0.98        1.02        1.05         1.5] Yarray=[1  1  0  0 -1 -1]
New XYCurve.CurveFor_InvForPV_03551374.3_from_03551374.3 npts=6 Xarray=[0.5        0.95        0.98        1.02        1.05         1.5] Yarray=[1  1  0  0 -1 -1]
New XYCurve.CurveFor_InvForPV_03551374.2_from_03551378.2 npts=6 Xarray=[0.5        0.95        0.98        1.02        1.05         1.5] Yarray=[1  1  0  0 -1 -1]
New XYCurve.CurveFor_InvForPV_03551374.3_from_03551378.3 npts=6 Xarray=[0.5        0.95        0.98        1.02        1.05         1.5] Yarray=[1  1  0  0 -1 -1]
New XYCurve.CurveFor_InvForPV_03551374.2_from_03551379.2 npts=6 Xarray=[0.5        0.95        0.98        1.02        1.05         1.5] Yarray=[1  1  0  0 -1 -1]
New XYCurve.CurveFor_InvForPV_03551374.3_from_03551379.3 npts=6 Xarray=[0.5        0.95        0.98        1.02        1.05         1.5] Yarray=[1  1  0  0 -1 -1]
New XYCurve.CurveFor_InvForPV_03551374.2_from_03551380.2 npts=6 Xarray=[0.5        0.95        0.98        1.02        1.05         1.5] Yarray=[1  1  0  0 -1 -1]
New XYCurve.CurveFor_InvForPV_03551374.3_from_03551380.3 npts=6 Xarray=[0.5        0.95        0.98        1.02        1.05         1.5] Yarray=[1  1  0  0 -1 -1]
New XYCurve.CurveFor_InvForPV_03551374.2_from_03551381.2 npts=6 Xarray=[0.5        0.95        0.98        1.02        1.05         1.5] Yarray=[1  1  0  0 -1 -1]
New XYCurve.CurveFor_InvForPV_03551374.3_from_03551381.3 npts=6 Xarray=[0.5        0.95        0.98        1.02        1.05         1.5] Yarray=[1  1  0  0 -1 -1]
New XYCurve.CurveFor_InvForPV_03551374.2_from_03551382.2 npts=6 Xarray=[0.5        0.95        0.98        1.02        1.05         1.5] Yarray=[1  1  0  0 -1 -1]
New XYCurve.CurveFor_InvForPV_03551374.3_from_03551382.3 npts=6 Xarray=[0.5        0.95        0.98        1.02        1.05         1.5] Yarray=[1  1  0  0 -1 -1]
New XYCurve.CurveFor_InvForPV_03551374.2_from_03551383.2 npts=6 Xarray=[0.5        0.95        0.98        1.02        1.05         1.5] Yarray=[1  1  0  0 -1 -1]
New XYCurve.CurveFor_InvForPV_03551374.3_from_03551383.3 npts=6 Xarray=[0.5        0.95        0.98        1.02        1.05         1.5] Yarray=[1  1  0  0 -1 -1]
New XYCurve.CurveFor_InvForPV_03551374.2_from_03551383A.2 npts=6 Xarray=[0.5        0.95        0.98        1.02        1.05         1.5] Yarray=[1  1  0  0 -1 -1]
New XYCurve.CurveFor_InvForPV_03551374.3_from_03551383A.3 npts=6 Xarray=[0.5        0.95        0.98        1.02        1.05         1.5] Yarray=[1  1  0  0 -1 -1]
New XYCurve.CurveFor_InvForPV_03551374.2_from_03551385A.2 npts=6 Xarray=[0.5        0.95        0.98        1.02        1.05         1.5] Yarray=[1  1  0  0 -1 -1]
New XYCurve.CurveFor_InvForPV_03551374.3_from_03551385A.3 npts=6 Xarray=[0.5        0.95        0.98        1.02        1.05         1.5] Yarray=[1  1  0  0 -1 -1]
New XYCurve.CurveFor_InvForPV_035513.1_from_035513A.1 npts=6 Xarray=[0.5        0.95        0.98        1.02        1.05         1.5] Yarray=[1  1  0  0 -1 -1]
New XYCurve.CurveFor_InvForPV_035513.3_from_035513A.3 npts=6 Xarray=[0.5        0.95        0.98        1.02        1.05         1.5] Yarray=[1  1  0  0 -1 -1]
New XYCurve.CurveFor_InvForPV_035513.2_from_035515.2 npts=6 Xarray=[0.5        0.95        0.98        1.02        1.05         1.5] Yarray=[1  1  0  0 -1 -1]
New XYCurve.CurveFor_InvForPV_03552576.2_from_035515.2 npts=6 Xarray=[0.5        0.95        0.98        1.02        1.05         1.5] Yarray=[1  1  0  0 -1 -1]
New XYCurve.CurveFor_InvForPV_035513.3_from_035515.3 npts=6 Xarray=[0.5        0.95        0.98        1.02        1.05         1.5] Yarray=[1  1  0  0 -1 -1]
New XYCurve.CurveFor_InvForPV_03552576.3_from_035515.3 npts=6 Xarray=[0.5        0.95        0.98        1.02        1.05         1.5] Yarray=[1  1  0  0 -1 -1]
New XYCurve.CurveFor_InvForPV_035513.1_from_03552510.1 npts=6 Xarray=[0.5        0.95        0.98        1.02        1.05         1.5] Yarray=[1  1  0  0 -1 -1]
New XYCurve.CurveFor_InvForPV_03552576.1_from_03552510.1 npts=6 Xarray=[0.5        0.95        0.98        1.02        1.05         1.5] Yarray=[1  1  0  0 -1 -1]
New XYCurve.CurveFor_InvForPV_035513.2_from_03552510.2 npts=6 Xarray=[0.5        0.95        0.98        1.02        1.05         1.5] Yarray=[1  1  0  0 -1 -1]
New XYCurve.CurveFor_InvForPV_03552576.2_from_03552510.2 npts=6 Xarray=[0.5        0.95        0.98        1.02        1.05         1.5] Yarray=[1  1  0  0 -1 -1]
New XYCurve.CurveFor_InvForPV_035513.3_from_03552510.3 npts=6 Xarray=[0.5        0.95        0.98        1.02        1.05         1.5] Yarray=[1  1  0  0 -1 -1]
New XYCurve.CurveFor_InvForPV_03552576.3_from_03552510.3 npts=6 Xarray=[0.5        0.95        0.98        1.02        1.05         1.5] Yarray=[1  1  0  0 -1 -1]
New XYCurve.CurveFor_InvForPV_035513.1_from_03552514.1 npts=6 Xarray=[0.5        0.95        0.98        1.02        1.05         1.5] Yarray=[1  1  0  0 -1 -1]
New XYCurve.CurveFor_InvForPV_03552576.1_from_03552514.1 npts=6 Xarray=[0.5        0.95        0.98        1.02        1.05         1.5] Yarray=[1  1  0  0 -1 -1]
New XYCurve.CurveFor_InvForPV_035513.2_from_03552514.2 npts=6 Xarray=[0.5        0.95        0.98        1.02        1.05         1.5] Yarray=[1  1  0  0 -1 -1]
New XYCurve.CurveFor_InvForPV_03552576.2_from_03552514.2 npts=6 Xarray=[0.5        0.95        0.98        1.02        1.05         1.5] Yarray=[1  1  0  0 -1 -1]
New XYCurve.CurveFor_InvForPV_035513.3_from_03552514.3 npts=6 Xarray=[0.5        0.95        0.98        1.02        1.05         1.5] Yarray=[1  1  0  0 -1 -1]
New XYCurve.CurveFor_InvForPV_03552576.3_from_03552514.3 npts=6 Xarray=[0.5        0.95        0.98        1.02        1.05         1.5] Yarray=[1  1  0  0 -1 -1]
New XYCurve.CurveFor_InvForPV_035513.2_from_03552558.2 npts=6 Xarray=[0.5        0.95        0.98        1.02        1.05         1.5] Yarray=[1  1  0  0 -1 -1]
New XYCurve.CurveFor_InvForPV_03552576.2_from_03552558.2 npts=6 Xarray=[0.5        0.95        0.98        1.02        1.05         1.5] Yarray=[1  1  0  0 -1 -1]
New XYCurve.CurveFor_InvForPV_035513.1_from_03552573.1 npts=6 Xarray=[0.5        0.95        0.98        1.02        1.05         1.5] Yarray=[1  1  0  0 -1 -1]
New XYCurve.CurveFor_InvForPV_03552576.1_from_03552573.1 npts=6 Xarray=[0.5        0.95        0.98        1.02        1.05         1.5] Yarray=[1  1  0  0 -1 -1]
New XYCurve.CurveFor_InvForPV_035513.2_from_03552573.2 npts=6 Xarray=[0.5        0.95        0.98        1.02        1.05         1.5] Yarray=[1  1  0  0 -1 -1]
New XYCurve.CurveFor_InvForPV_03552576.2_from_03552573.2 npts=6 Xarray=[0.5        0.95        0.98        1.02        1.05         1.5] Yarray=[1  1  0  0 -1 -1]
New XYCurve.CurveFor_InvForPV_035513.3_from_03552573.3 npts=6 Xarray=[0.5        0.95        0.98        1.02        1.05         1.5] Yarray=[1  1  0  0 -1 -1]
New XYCurve.CurveFor_InvForPV_03552576.3_from_03552573.3 npts=6 Xarray=[0.5        0.95        0.98        1.02        1.05         1.5] Yarray=[1  1  0  0 -1 -1]
New XYCurve.CurveFor_InvForPV_035513.2_from_03552574.2 npts=6 Xarray=[0.5        0.95        0.98        1.02        1.05         1.5] Yarray=[1  1  0  0 -1 -1]
New XYCurve.CurveFor_InvForPV_03552576.2_from_03552574.2 npts=6 Xarray=[0.5        0.95        0.98        1.02        1.05         1.5] Yarray=[1  1  0  0 -1 -1]
New XYCurve.CurveFor_InvForPV_035513.3_from_03552574.3 npts=6 Xarray=[0.5        0.95        0.98        1.02        1.05         1.5] Yarray=[1  1  0  0 -1 -1]
New XYCurve.CurveFor_InvForPV_03552576.3_from_03552574.3 npts=6 Xarray=[0.5        0.95        0.98        1.02        1.05         1.5] Yarray=[1  1  0  0 -1 -1]
New XYCurve.CurveFor_InvForPV_03552577.1_from_03552578A.1 npts=6 Xarray=[0.5        0.95        0.98        1.02        1.05         1.5] Yarray=[1  1  0  0 -1 -1]
New XYCurve.CurveFor_InvForPV_03552577.2_from_03552578A.2 npts=6 Xarray=[0.5        0.95        0.98        1.02        1.05         1.5] Yarray=[1  1  0  0 -1 -1]
New XYCurve.CurveFor_InvForPV_03552577.3_from_03552578A.3 npts=6 Xarray=[0.5        0.95        0.98        1.02        1.05         1.5] Yarray=[1  1  0  0 -1 -1]
New XYCurve.CurveFor_InvForPV_03552577.1_from_03552629.1 npts=6 Xarray=[0.5        0.95        0.98        1.02        1.05         1.5] Yarray=[1  1  0  0 -1 -1]
New XYCurve.CurveFor_InvForPV_03552577.2_from_03552629.2 npts=6 Xarray=[0.5        0.95        0.98        1.02        1.05         1.5] Yarray=[1  1  0  0 -1 -1]
New XYCurve.CurveFor_InvForPV_03552577.3_from_03552629.3 npts=6 Xarray=[0.5        0.95        0.98        1.02        1.05         1.5] Yarray=[1  1  0  0 -1 -1]
New XYCurve.CurveFor_InvForPV_03552577.1_from_03552579A.1 npts=6 Xarray=[0.5        0.95        0.98        1.02        1.05         1.5] Yarray=[1  1  0  0 -1 -1]
New XYCurve.CurveFor_InvForPV_03552577.2_from_03552579A.2 npts=6 Xarray=[0.5        0.95        0.98        1.02        1.05         1.5] Yarray=[1  1  0  0 -1 -1]
New XYCurve.CurveFor_InvForPV_03552577.3_from_03552579A.3 npts=6 Xarray=[0.5        0.95        0.98        1.02        1.05         1.5] Yarray=[1  1  0  0 -1 -1]
New XYCurve.CurveFor_InvForPV_03552577.1_from_03552580.1 npts=6 Xarray=[0.5        0.95        0.98        1.02        1.05         1.5] Yarray=[1  1  0  0 -1 -1]
New XYCurve.CurveFor_InvForPV_03552577.2_from_03552580.2 npts=6 Xarray=[0.5        0.95        0.98        1.02        1.05         1.5] Yarray=[1  1  0  0 -1 -1]
New XYCurve.CurveFor_InvForPV_03552577.3_from_03552580.3 npts=6 Xarray=[0.5        0.95        0.98        1.02        1.05         1.5] Yarray=[1  1  0  0 -1 -1]
New XYCurve.CurveFor_InvForPV_03552577.1_from_03552580A.1 npts=6 Xarray=[0.5        0.95        0.98        1.02        1.05         1.5] Yarray=[1  1  0  0 -1 -1]
New XYCurve.CurveFor_InvForPV_03552577.2_from_03552580A.2 npts=6 Xarray=[0.5        0.95        0.98        1.02        1.05         1.5] Yarray=[1  1  0  0 -1 -1]
New XYCurve.CurveFor_InvForPV_03552577.3_from_03552580A.3 npts=6 Xarray=[0.5        0.95        0.98        1.02        1.05         1.5] Yarray=[1  1  0  0 -1 -1]
New XYCurve.CurveFor_InvForPV_03552577.1_from_03552583.1 npts=6 Xarray=[0.5        0.95        0.98        1.02        1.05         1.5] Yarray=[1  1  0  0 -1 -1]
New XYCurve.CurveFor_InvForPV_03552577.2_from_03552583.2 npts=6 Xarray=[0.5        0.95        0.98        1.02        1.05         1.5] Yarray=[1  1  0  0 -1 -1]
New XYCurve.CurveFor_InvForPV_03552577.3_from_03552583.3 npts=6 Xarray=[0.5        0.95        0.98        1.02        1.05         1.5] Yarray=[1  1  0  0 -1 -1]
New XYCurve.CurveFor_InvForPV_03552577.1_from_03552584A.1 npts=6 Xarray=[0.5        0.95        0.98        1.02        1.05         1.5] Yarray=[1  1  0  0 -1 -1]
New XYCurve.CurveFor_InvForPV_03552577.2_from_03552584A.2 npts=6 Xarray=[0.5        0.95        0.98        1.02        1.05         1.5] Yarray=[1  1  0  0 -1 -1]
New XYCurve.CurveFor_InvForPV_03552577.3_from_03552584A.3 npts=6 Xarray=[0.5        0.95        0.98        1.02        1.05         1.5] Yarray=[1  1  0  0 -1 -1]
New XYCurve.CurveFor_InvForPV_03552577.1_from_03552585.1 npts=6 Xarray=[0.5        0.95        0.98        1.02        1.05         1.5] Yarray=[1  1  0  0 -1 -1]
New XYCurve.CurveFor_InvForPV_03552577.2_from_03552585.2 npts=6 Xarray=[0.5        0.95        0.98        1.02        1.05         1.5] Yarray=[1  1  0  0 -1 -1]
New XYCurve.CurveFor_InvForPV_03552577.3_from_03552585.3 npts=6 Xarray=[0.5        0.95        0.98        1.02        1.05         1.5] Yarray=[1  1  0  0 -1 -1]
New XYCurve.CurveFor_InvForPV_03552577.1_from_03552586.1 npts=6 Xarray=[0.5        0.95        0.98        1.02        1.05         1.5] Yarray=[1  1  0  0 -1 -1]
New XYCurve.CurveFor_InvForPV_03552577.2_from_03552586.2 npts=6 Xarray=[0.5        0.95        0.98        1.02        1.05         1.5] Yarray=[1  1  0  0 -1 -1]
New XYCurve.CurveFor_InvForPV_03552577.3_from_03552586.3 npts=6 Xarray=[0.5        0.95        0.98        1.02        1.05         1.5] Yarray=[1  1  0  0 -1 -1]
New XYCurve.CurveFor_InvForPV_03552577.1_from_03552598.1 npts=6 Xarray=[0.5        0.95        0.98        1.02        1.05         1.5] Yarray=[1  1  0  0 -1 -1]
New XYCurve.CurveFor_InvForPV_03552577.2_from_03552598.2 npts=6 Xarray=[0.5        0.95        0.98        1.02        1.05         1.5] Yarray=[1  1  0  0 -1 -1]
New XYCurve.CurveFor_InvForPV_03552577.3_from_03552598.3 npts=6 Xarray=[0.5        0.95        0.98        1.02        1.05         1.5] Yarray=[1  1  0  0 -1 -1]
New XYCurve.CurveFor_InvForPV_03552577.1_from_03552623.1 npts=6 Xarray=[0.5        0.95        0.98        1.02        1.05         1.5] Yarray=[1  1  0  0 -1 -1]
New XYCurve.CurveFor_InvForPV_03552577.1_from_03552587.1 npts=6 Xarray=[0.5        0.95        0.98        1.02        1.05         1.5] Yarray=[1  1  0  0 -1 -1]
...
New Pvsystem.PV_03551.1_from_03551.1 phases=1 bus1=03551.1 kv=6.93 irradiance=1 Pmpp=1.5767 kvar=0 kVA=1.5767 %cutin=0 %cutout=0 EffCurve=myeff P-TCurve=mypvst
New Pvsystem.PV_03551.2_from_03551.2 phases=1 bus1=03551.2 kv=6.93 irradiance=1 Pmpp=1.5767 kvar=0 kVA=1.5767 %cutin=0 %cutout=0 EffCurve=myeff P-TCurve=mypvst
New Pvsystem.PV_03551.3_from_03551.3 phases=1 bus1=03551.3 kv=6.93 irradiance=1 Pmpp=1.5767 kvar=0 kVA=1.5767 %cutin=0 %cutout=0 EffCurve=myeff P-TCurve=mypvst
New Pvsystem.PV_03551.1_from_035511.1 phases=1 bus1=03551.1 kv=6.93 irradiance=1 Pmpp=0.21312 kvar=0 kVA=0.21312 %cutin=0 %cutout=0 EffCurve=myeff P-TCurve=mypvst
New Pvsystem.PV_035512.1_from_035511.1 phases=1 bus1=035512.1 kv=6.93 irradiance=1 Pmpp=2.9229 kvar=0 kVA=2.9229 %cutin=0 %cutout=0 EffCurve=myeff P-TCurve=mypvst
New Pvsystem.PV_03551.1_from_035510A.1 phases=1 bus1=03551.1 kv=6.93 irradiance=1 Pmpp=0.95013 kvar=0 kVA=0.95013 %cutin=0 %cutout=0 EffCurve=myeff P-TCurve=mypvst
New Pvsystem.PV_035512.1_from_035510A.1 phases=1 bus1=035512.1 kv=6.93 irradiance=1 Pmpp=5.4899 kvar=0 kVA=5.4899 %cutin=0 %cutout=0 EffCurve=myeff P-TCurve=mypvst
New Pvsystem.PV_035512.1_from_035512.1 phases=1 bus1=035512.1 kv=6.93 irradiance=1 Pmpp=1.8228 kvar=0 kVA=1.8228 %cutin=0 %cutout=0 EffCurve=myeff P-TCurve=mypvst
New Pvsystem.PV_035512.2_from_035512.2 phases=1 bus1=035512.2 kv=6.93 irradiance=1 Pmpp=1.8228 kvar=0 kVA=1.8228 %cutin=0 %cutout=0 EffCurve=myeff P-TCurve=mypvst
New Pvsystem.PV_035512.3_from_035512.3 phases=1 bus1=035512.3 kv=6.93 irradiance=1 Pmpp=1.8228 kvar=0 kVA=1.8228 %cutin=0 %cutout=0 EffCurve=myeff P-TCurve=mypvst
New Pvsystem.PV_03551201.1_from_03551201.1 phases=1 bus1=03551201.1 kv=6.93 irradiance=1 Pmpp=4.725 kvar=0 kVA=4.725 %cutin=0 %cutout=0 EffCurve=myeff P-TCurve=mypvst
New Pvsystem.PV_03551201.3_from_03551201.3 phases=1 bus1=03551201.3 kv=6.93 irradiance=1 Pmpp=4.725 kvar=0 kVA=4.725 %cutin=0 %cutout=0 EffCurve=myeff P-TCurve=mypvst
New Pvsystem.PV_035513.1_from_03551306.1 phases=1 bus1=035513.1 kv=6.93 irradiance=1 Pmpp=2.0918 kvar=0 kVA=2.0918 %cutin=0 %cutout=0 EffCurve=myeff P-TCurve=mypvst
New Pvsystem.PV_03551314.1_from_03551306.1 phases=1 bus1=03551314.1 kv=6.93 irradiance=1 Pmpp=0.43816 kvar=0 kVA=0.43816 %cutin=0 %cutout=0 EffCurve=myeff P-TCurve=mypvst
New Pvsystem.PV_035513.2_from_03551306.2 phases=1 bus1=035513.2 kv=6.93 irradiance=1 Pmpp=2.0918 kvar=0 kVA=2.0918 %cutin=0 %cutout=0 EffCurve=myeff P-TCurve=mypvst
New Pvsystem.PV_03551314.2_from_03551306.2 phases=1 bus1=03551314.2 kv=6.93 irradiance=1 Pmpp=0.43816 kvar=0 kVA=0.43816 %cutin=0 %cutout=0 EffCurve=myeff P-TCurve=mypvst
New Pvsystem.PV_035513.3_from_03551306.3 phases=1 bus1=035513.3 kv=6.93 irradiance=1 Pmpp=2.0918 kvar=0 kVA=2.0918 %cutin=0 %cutout=0 EffCurve=myeff P-TCurve=mypvst
New Pvsystem.PV_03551314.3_from_03551306.3 phases=1 bus1=03551314.3 kv=6.93 irradiance=1 Pmpp=0.43816 kvar=0 kVA=0.43816 %cutin=0 %cutout=0 EffCurve=myeff P-TCurve=mypvst
New Pvsystem.PV_035513.1_from_035514.1 phases=1 bus1=035513.1 kv=6.93 irradiance=1 Pmpp=2.1502 kvar=0 kVA=2.1502 %cutin=0 %cutout=0 EffCurve=myeff P-TCurve=mypvst
New Pvsystem.PV_03552576.1_from_035514.1 phases=1 bus1=03552576.1 kv=6.93 irradiance=1 Pmpp=0.14257 kvar=0 kVA=0.14257 %cutin=0 %cutout=0 EffCurve=myeff P-TCurve=mypvst
New Pvsystem.PV_035513.2_from_035514.2 phases=1 bus1=035513.2 kv=6.93 irradiance=1 Pmpp=2.1502 kvar=0 kVA=2.1502 %cutin=0 %cutout=0 EffCurve=myeff P-TCurve=mypvst
New Pvsystem.PV_03552576.2_from_035514.2 phases=1 bus1=03552576.2 kv=6.93 irradiance=1 Pmpp=0.14257 kvar=0 kVA=0.14257 %cutin=0 %cutout=0 EffCurve=myeff P-TCurve=mypvst
New Pvsystem.PV_035513.3_from_035514.3 phases=1 bus1=035513.3 kv=6.93 irradiance=1 Pmpp=2.1502 kvar=0 kVA=2.1502 %cutin=0 %cutout=0 EffCurve=myeff P-TCurve=mypvst
New Pvsystem.PV_03552576.3_from_035514.3 phases=1 bus1=03552576.3 kv=6.93 irradiance=1 Pmpp=0.14257 kvar=0 kVA=0.14257 %cutin=0 %cutout=0 EffCurve=myeff P-TCurve=mypvst
New Pvsystem.PV_035513.1_from_03551301.1 phases=1 bus1=035513.1 kv=6.93 irradiance=1 Pmpp=4.725 kvar=0 kVA=4.725 %cutin=0 %cutout=0 EffCurve=myeff P-TCurve=mypvst
New Pvsystem.PV_035513.3_from_03551301.3 phases=1 bus1=035513.3 kv=6.93 irradiance=1 Pmpp=4.725 kvar=0 kVA=4.725 %cutin=0 %cutout=0 EffCurve=myeff P-TCurve=mypvst
New Pvsystem.PV_035513.1_from_03551302.1 phases=1 bus1=035513.1 kv=6.93 irradiance=1 Pmpp=3.4392 kvar=0 kVA=3.4392 %cutin=0 %cutout=0 EffCurve=myeff P-TCurve=mypvst
New Pvsystem.PV_035513.3_from_03551302.3 phases=1 bus1=035513.3 kv=6.93 irradiance=1 Pmpp=3.4392 kvar=0 kVA=3.4392 %cutin=0 %cutout=0 EffCurve=myeff P-TCurve=mypvst
New Pvsystem.PV_035513.1_from_03551307.1 phases=1 bus1=035513.1 kv=6.93 irradiance=1 Pmpp=1.4665 kvar=0 kVA=1.4665 %cutin=0 %cutout=0 EffCurve=myeff P-TCurve=mypvst
New Pvsystem.PV_03551314.1_from_03551307.1 phases=1 bus1=03551314.1 kv=6.93 irradiance=1 Pmpp=1.2678 kvar=0 kVA=1.2678 %cutin=0 %cutout=0 EffCurve=myeff P-TCurve=mypvst
New Pvsystem.PV_035513.3_from_03551307.3 phases=1 bus1=035513.3 kv=6.93 irradiance=1 Pmpp=1.4665 kvar=0 kVA=1.4665 %cutin=0 %cutout=0 EffCurve=myeff P-TCurve=mypvst
New Pvsystem.PV_03551314.3_from_03551307.3 phases=1 bus1=03551314.3 kv=6.93 irradiance=1 Pmpp=1.2678 kvar=0 kVA=1.2678 %cutin=0 %cutout=0 EffCurve=myeff P-TCurve=mypvst
New Pvsystem.PV_035513.1_from_03551308.1 phases=1 bus1=035513.1 kv=6.93 irradiance=1 Pmpp=0.70212 kvar=0 kVA=0.70212 %cutin=0 %cutout=0 EffCurve=myeff P-TCurve=mypvst
New Pvsystem.PV_03551314.1_from_03551308.1 phases=1 bus1=03551314.1 kv=6.93 irradiance=1 Pmpp=1.4257 kvar=0 kVA=1.4257 %cutin=0 %cutout=0 EffCurve=myeff P-TCurve=mypvst
New Pvsystem.PV_035513.2_from_03551308.2 phases=1 bus1=035513.2 kv=6.93 irradiance=1 Pmpp=0.70212 kvar=0 kVA=0.70212 %cutin=0 %cutout=0 EffCurve=myeff P-TCurve=mypvst
New Pvsystem.PV_03551314.2_from_03551308.2 phases=1 bus1=03551314.2 kv=6.93 irradiance=1 Pmpp=1.4257 kvar=0 kVA=1.4257 %cutin=0 %cutout=0 EffCurve=myeff P-TCurve=mypvst
New Pvsystem.PV_035513.3_from_03551308.3 phases=1 bus1=035513.3 kv=6.93 irradiance=1 Pmpp=0.70212 kvar=0 kVA=0.70212 %cutin=0 %cutout=0 EffCurve=myeff P-TCurve=mypvst
New Pvsystem.PV_03551314.3_from_03551308.3 phases=1 bus1=03551314.3 kv=6.93 irradiance=1 Pmpp=1.4257 kvar=0 kVA=1.4257 %cutin=0 %cutout=0 EffCurve=myeff P-TCurve=mypvst
New Pvsystem.PV_035513.1_from_03551308A.1 phases=1 bus1=035513.1 kv=6.93 irradiance=1 Pmpp=1.3176 kvar=0 kVA=1.3176 %cutin=0 %cutout=0 EffCurve=myeff P-TCurve=mypvst
New Pvsystem.PV_03551314.1_from_03551308A.1 phases=1 bus1=03551314.1 kv=6.93 irradiance=1 Pmpp=2.6755 kvar=0 kVA=2.6755 %cutin=0 %cutout=0 EffCurve=myeff P-TCurve=mypvst
New Pvsystem.PV_035513.3_from_03551308A.3 phases=1 bus1=035513.3 kv=6.93 irradiance=1 Pmpp=1.3176 kvar=0 kVA=1.3176 %cutin=0 %cutout=0 EffCurve=myeff P-TCurve=mypvst
New Pvsystem.PV_03551314.3_from_03551308A.3 phases=1 bus1=03551314.3 kv=6.93 irradiance=1 Pmpp=2.6755 kvar=0 kVA=2.6755 %cutin=0 %cutout=0 EffCurve=myeff P-TCurve=mypvst
New Pvsystem.PV_035513.1_from_03551309.1 phases=1 bus1=035513.1 kv=6.93 irradiance=1 Pmpp=1.3823 kvar=0 kVA=1.3823 %cutin=0 %cutout=0 EffCurve=myeff P-TCurve=mypvst
New Pvsystem.PV_03551314.1_from_03551309.1 phases=1 bus1=03551314.1 kv=6.93 irradiance=1 Pmpp=2.8069 kvar=0 kVA=2.8069 %cutin=0 %cutout=0 EffCurve=myeff P-TCurve=mypvst
New Pvsystem.PV_035513.3_from_03551309.3 phases=1 bus1=035513.3 kv=6.93 irradiance=1 Pmpp=1.3823 kvar=0 kVA=1.3823 %cutin=0 %cutout=0 EffCurve=myeff P-TCurve=mypvst
New Pvsystem.PV_03551314.3_from_03551309.3 phases=1 bus1=03551314.3 kv=6.93 irradiance=1 Pmpp=2.8069 kvar=0 kVA=2.8069 %cutin=0 %cutout=0 EffCurve=myeff P-TCurve=mypvst
New Pvsystem.PV_035513.1_from_03551310.1 phases=1 bus1=035513.1 kv=6.93 irradiance=1 Pmpp=0.90221 kvar=0 kVA=0.90221 %cutin=0 %cutout=0 EffCurve=myeff P-TCurve=mypvst
New Pvsystem.PV_03551314.1_from_03551310.1 phases=1 bus1=03551314.1 kv=6.93 irradiance=1 Pmpp=1.832 kvar=0 kVA=1.832 %cutin=0 %cutout=0 EffCurve=myeff P-TCurve=mypvst
New Pvsystem.PV_035513.3_from_03551310.3 phases=1 bus1=035513.3 kv=6.93 irradiance=1 Pmpp=0.90221 kvar=0 kVA=0.90221 %cutin=0 %cutout=0 EffCurve=myeff P-TCurve=mypvst
New Pvsystem.PV_03551314.3_from_03551310.3 phases=1 bus1=03551314.3 kv=6.93 irradiance=1 Pmpp=1.832 kvar=0 kVA=1.832 %cutin=0 %cutout=0 EffCurve=myeff P-TCurve=mypvst
New Pvsystem.PV_035513.1_from_03551311.1 phases=1 bus1=035513.1 kv=6.93 irradiance=1 Pmpp=1.5591 kvar=0 kVA=1.5591 %cutin=0 %cutout=0 EffCurve=myeff P-TCurve=mypvst
New Pvsystem.PV_03551314.1_from_03551311.1 phases=1 bus1=03551314.1 kv=6.93 irradiance=1 Pmpp=3.1659 kvar=0 kVA=3.1659 %cutin=0 %cutout=0 EffCurve=myeff P-TCurve=mypvst
New Pvsystem.PV_035513.3_from_03551311.3 phases=1 bus1=035513.3 kv=6.93 irradiance=1 Pmpp=1.5591 kvar=0 kVA=1.5591 %cutin=0 %cutout=0 EffCurve=myeff P-TCurve=mypvst
New Pvsystem.PV_03551314.3_from_03551311.3 phases=1 bus1=03551314.3 kv=6.93 irradiance=1 Pmpp=3.1659 kvar=0 kVA=3.1659 %cutin=0 %cutout=0 EffCurve=myeff P-TCurve=mypvst
New Pvsystem.PV_03551314.1_from_03551315.1 phases=1 bus1=03551314.1 kv=6.93 irradiance=1 Pmpp=1.2661 kvar=0 kVA=1.2661 %cutin=0 %cutout=0 EffCurve=myeff P-TCurve=mypvst
New Pvsystem.PV_03551328.1_from_03551315.1 phases=1 bus1=03551328.1 kv=6.93 irradiance=1 Pmpp=0.16385 kvar=0 kVA=0.16385 %cutin=0 %cutout=0 EffCurve=myeff P-TCurve=mypvst
New Pvsystem.PV_03551314.1_from_03551319.1 phases=1 bus1=03551314.1 kv=6.93 irradiance=1 Pmpp=2.167 kvar=0.093598 kVA=2.1691 %cutin=0 %cutout=0 EffCurve=myeff P-TCurve=mypvst
New Pvsystem.PV_03551328.1_from_03551319.1 phases=1 bus1=03551328.1 kv=6.93 irradiance=1 Pmpp=2.153 kvar=-0.093596 kVA=2.155 %cutin=0 %cutout=0 EffCurve=myeff P-TCurve=mypvst
New Pvsystem.PV_03551314.1_from_03551365.1 phases=1 bus1=03551314.1 kv=6.93 irradiance=1 Pmpp=2.1233 kvar=0.083327 kVA=2.1249 %cutin=0 %cutout=0 EffCurve=myeff P-TCurve=mypvst
New Pvsystem.PV_03551328.1_from_03551365.1 phases=1 bus1=03551328.1 kv=6.93 irradiance=1 Pmpp=1.5667 kvar=-0.083325 kVA=1.5689 %cutin=0 %cutout=0 EffCurve=myeff P-TCurve=mypvst
New Pvsystem.PV_03551314.1_from_03551320.1 phases=1 bus1=03551314.1 kv=6.93 irradiance=1 Pmpp=0.75721 kvar=0.037544 kVA=0.75814 %cutin=0 %cutout=0 EffCurve=myeff P-TCurve=mypvst
New Pvsystem.PV_03551328.1_from_03551320.1 phases=1 bus1=03551328.1 kv=6.93 irradiance=1 Pmpp=1.0656 kvar=-0.037543 kVA=1.0663 %cutin=0 %cutout=0 EffCurve=myeff P-TCurve=mypvst
New Pvsystem.PV_03551314.1_from_03551321.1 phases=1 bus1=03551314.1 kv=6.93 irradiance=1 Pmpp=0.96501 kvar=0.056447 kVA=0.96666 %cutin=0 %cutout=0 EffCurve=myeff P-TCurve=mypvst
New Pvsystem.PV_03551328.1_from_03551321.1 phases=1 bus1=03551328.1 kv=6.93 irradiance=1 Pmpp=1.915 kvar=-0.056445 kVA=1.9158 %cutin=0 %cutout=0 EffCurve=myeff P-TCurve=mypvst
New Pvsystem.PV_03551314.1_from_03551322.1 phases=1 bus1=03551314.1 kv=6.93 irradiance=1 Pmpp=1.0535 kvar=0.07978 kVA=1.0565 %cutin=0 %cutout=0 EffCurve=myeff P-TCurve=mypvst
New Pvsystem.PV_03551328.1_from_03551322.1 phases=1 bus1=03551328.1 kv=6.93 irradiance=1 Pmpp=3.2665 kvar=-0.079779 kVA=3.2675 %cutin=0 %cutout=0 EffCurve=myeff P-TCurve=mypvst
New Pvsystem.PV_03551314.1_from_03551323.1 phases=1 bus1=03551314.1 kv=6.93 irradiance=1 Pmpp=0.16684 kvar=0.017636 kVA=0.16777 %cutin=0 %cutout=0 EffCurve=myeff P-TCurve=mypvst
New Pvsystem.PV_03551328.1_from_03551323.1 phases=1 bus1=03551328.1 kv=6.93 irradiance=1 Pmpp=0.84116 kvar=-0.017635 kVA=0.84134 %cutin=0 %cutout=0 EffCurve=myeff P-TCurve=mypvst
New Pvsystem.PV_03551314.1_from_03551324.1 phases=1 bus1=03551314.1 kv=6.93 irradiance=1 Pmpp=0.98317 kvar=0.10392 kVA=0.98864 %cutin=0 %cutout=0 EffCurve=myeff P-TCurve=mypvst
New Pvsystem.PV_03551328.1_from_03551324.1 phases=1 bus1=03551328.1 kv=6.93 irradiance=1 Pmpp=4.9568 kvar=-0.10392 kVA=4.9579 %cutin=0 %cutout=0 EffCurve=myeff P-TCurve=mypvst
New Pvsystem.PV_03551314.1_from_03551326.1 phases=1 bus1=03551314.1 kv=6.93 irradiance=1 Pmpp=0.25089 kvar=0 kVA=0.25089 %cutin=0 %cutout=0 EffCurve=myeff P-TCurve=mypvst
New Pvsystem.PV_03551328.1_from_03551326.1 phases=1 bus1=03551328.1 kv=6.93 irradiance=1 Pmpp=3.7423 kvar=0 kVA=3.7423 %cutin=0 %cutout=0 EffCurve=myeff P-TCurve=mypvst
New Pvsystem.PV_03551314.1_from_03551325.1 phases=1 bus1=03551314.1 kv=6.93 irradiance=1 Pmpp=0.44062 kvar=0.046575 kVA=0.44308 %cutin=0 %cutout=0 EffCurve=myeff P-TCurve=mypvst
New Pvsystem.PV_03551328.1_from_03551325.1 phases=1 bus1=03551328.1 kv=6.93 irradiance=1 Pmpp=2.2215 kvar=-0.046574 kVA=2.222 %cutin=0 %cutout=0 EffCurve=myeff P-TCurve=mypvst
New Pvsystem.PV_03551328.1_from_03551327.1 phases=1 bus1=03551328.1 kv=6.93 irradiance=1 Pmpp=1.5667 kvar=0 kVA=1.5667 %cutin=0 %cutout=0 EffCurve=myeff P-TCurve=mypvst
New Pvsystem.PV_03551328A.1_from_03551328A.1 phases=1 bus1=03551328A.1 kv=6.93 irradiance=1 Pmpp=4.6893 kvar=0 kVA=4.6893 %cutin=0 %cutout=0 EffCurve=myeff P-TCurve=mypvst
New Pvsystem.PV_03551328A.1_from_03551329.1 phases=1 bus1=03551328A.1 kv=6.93 irradiance=1 Pmpp=8.424 kvar=0 kVA=8.424 %cutin=0 %cutout=0 EffCurve=myeff P-TCurve=mypvst
New Pvsystem.PV_03551328A.1_from_03551330.1 phases=1 bus1=03551328A.1 kv=6.93 irradiance=1 Pmpp=2.86 kvar=0 kVA=2.86 %cutin=0 %cutout=0 EffCurve=myeff P-TCurve=mypvst
New Pvsystem.PV_03551328A.1_from_03551331.1 phases=1 bus1=03551328A.1 kv=6.93 irradiance=1 Pmpp=8.64 kvar=0 kVA=8.64 %cutin=0 %cutout=0 EffCurve=myeff P-TCurve=mypvst
New Pvsystem.PV_03551328.1_from_03551335.1 phases=1 bus1=03551328.1 kv=6.93 irradiance=1 Pmpp=3.99 kvar=0 kVA=3.99 %cutin=0 %cutout=0 EffCurve=myeff P-TCurve=mypvst
New Pvsystem.PV_03551328.1_from_03551346.1 phases=1 bus1=03551328.1 kv=6.93 irradiance=1 Pmpp=4.1858 kvar=0 kVA=4.1858 %cutin=0 %cutout=0 EffCurve=myeff P-TCurve=mypvst
New Pvsystem.PV_03551328.1_from_03551336.1 phases=1 bus1=03551328.1 kv=6.93 irradiance=1 Pmpp=5.8841 kvar=0 kVA=5.8841 %cutin=0 %cutout=0 EffCurve=myeff P-TCurve=mypvst
New Pvsystem.PV_03551328.1_from_03551337.1 phases=1 bus1=03551328.1 kv=6.93 irradiance=1 Pmpp=3.792 kvar=0 kVA=3.792 %cutin=0 %cutout=0 EffCurve=myeff P-TCurve=mypvst
New Pvsystem.PV_03551328.1_from_03551339.1 phases=1 bus1=03551328.1 kv=6.93 irradiance=1 Pmpp=4.1858 kvar=0 kVA=4.1858 %cutin=0 %cutout=0 EffCurve=myeff P-TCurve=mypvst
New Pvsystem.PV_03551328.1_from_03551342.1 phases=1 bus1=03551328.1 kv=6.93 irradiance=1 Pmpp=1.4289 kvar=0 kVA=1.4289 %cutin=0 %cutout=0 EffCurve=myeff P-TCurve=mypvst
New Pvsystem.PV_03551328.1_from_03551337A.1 phases=1 bus1=03551328.1 kv=6.93 irradiance=1 Pmpp=4.2086 kvar=0 kVA=4.2086 %cutin=0 %cutout=0 EffCurve=myeff P-TCurve=mypvst
New Pvsystem.PV_03551328.1_from_03551340.1 phases=1 bus1=03551328.1 kv=6.93 irradiance=1 Pmpp=4.3165 kvar=0 kVA=4.3165 %cutin=0 %cutout=0 EffCurve=myeff P-TCurve=mypvst
New Pvsystem.PV_03551328.1_from_03551341.1 phases=1 bus1=03551328.1 kv=6.93 irradiance=1 Pmpp=2.7321 kvar=0 kVA=2.7321 %cutin=0 %cutout=0 EffCurve=myeff P-TCurve=mypvst
New Pvsystem.PV_03551328.1_from_03551343.1 phases=1 bus1=03551328.1 kv=6.93 irradiance=1 Pmpp=3.99 kvar=0 kVA=3.99 %cutin=0 %cutout=0 EffCurve=myeff P-TCurve=mypvst
New Pvsystem.PV_03551374.2_from_03551367A.2 phases=1 bus1=03551374.2 kv=6.93 irradiance=1 Pmpp=0.54302 kvar=0.017907 kVA=0.54331 %cutin=0 %cutout=0 EffCurve=myeff P-TCurve=mypvst
New Pvsystem.PV_03551374.3_from_03551367A.3 phases=1 bus1=03551374.3 kv=6.93 irradiance=1 Pmpp=0.54302 kvar=0.017907 kVA=0.54331 %cutin=0 %cutout=0 EffCurve=myeff P-TCurve=mypvst
New Pvsystem.PV_03551374.2_from_03551368.2 phases=1 bus1=03551374.2 kv=6.93 irradiance=1 Pmpp=1.0042 kvar=0.039099 kVA=1.0049 %cutin=0 %cutout=0 EffCurve=myeff P-TCurve=mypvst
New Pvsystem.PV_03551374.3_from_03551368.2 phases=1 bus1=03551374.3 kv=6.93 irradiance=1 Pmpp=0 kvar=0.015621 kVA=0.015621 %cutin=0 %cutout=0 EffCurve=myeff P-TCurve=mypvst
New Pvsystem.PV_03551374.2_from_03551368.3 phases=1 bus1=03551374.2 kv=6.93 irradiance=1 Pmpp=0.010145 kvar=-0.01367 kVA=0.017024 %cutin=0 %cutout=0 EffCurve=myeff P-TCurve=mypvst
New Pvsystem.PV_03551374.3_from_03551368.3 phases=1 bus1=03551374.3 kv=6.93 irradiance=1 Pmpp=1.0042 kvar=0.039099 kVA=1.0049 %cutin=0 %cutout=0 EffCurve=myeff P-TCurve=mypvst
New Pvsystem.PV_03551374.2_from_03551369.2 phases=1 bus1=03551374.2 kv=6.93 irradiance=1 Pmpp=2.2611 kvar=0.09591 kVA=2.2631 %cutin=0 %cutout=0 EffCurve=myeff P-TCurve=mypvst
New Pvsystem.PV_03551374.3_from_03551369.2 phases=1 bus1=03551374.3 kv=6.93 irradiance=1 Pmpp=0.017175 kvar=0.03712 kVA=0.0409 %cutin=0 %cutout=0 EffCurve=myeff P-TCurve=mypvst
New Pvsystem.PV_03551374.2_from_03551369.3 phases=1 bus1=03551374.2 kv=6.93 irradiance=1 Pmpp=0.023559 kvar=-0.033434 kVA=0.0409 %cutin=0 %cutout=0 EffCurve=myeff P-TCurve=mypvst
New Pvsystem.PV_03551374.3_from_03551369.3 phases=1 bus1=03551374.3 kv=6.93 irradiance=1 Pmpp=2.2611 kvar=0.09591 kVA=2.2631 %cutin=0 %cutout=0 EffCurve=myeff P-TCurve=mypvst
New Pvsystem.PV_03551374.2_from_03551370.2 phases=1 bus1=03551374.2 kv=6.93 irradiance=1 Pmpp=1.8997 kvar=0.081788 kVA=1.9015 %cutin=0 %cutout=0 EffCurve=myeff P-TCurve=mypvst
New Pvsystem.PV_03551374.3_from_03551370.2 phases=1 bus1=03551374.3 kv=6.93 irradiance=1 Pmpp=0.014727 kvar=0.031485 kVA=0.034759 %cutin=0 %cutout=0 EffCurve=myeff P-TCurve=mypvst
New Pvsystem.PV_03551374.2_from_03551370.3 phases=1 bus1=03551374.2 kv=6.93 irradiance=1 Pmpp=0.019903 kvar=-0.028496 kVA=0.034759 %cutin=0 %cutout=0 EffCurve=myeff P-TCurve=mypvst
New Pvsystem.PV_03551374.3_from_03551370.3 phases=1 bus1=03551374.3 kv=6.93 irradiance=1 Pmpp=1.8997 kvar=0.081788 kVA=1.9015 %cutin=0 %cutout=0 EffCurve=myeff P-TCurve=mypvst
New Pvsystem.PV_03551374.2_from_03551371.2 phases=1 bus1=03551374.2 kv=6.93 irradiance=1 Pmpp=4.2107 kvar=0.12244 kVA=4.2124 %cutin=0 %cutout=0 EffCurve=myeff P-TCurve=mypvst
New Pvsystem.PV_03551374.3_from_03551371.2 phases=1 bus1=03551374.3 kv=6.93 irradiance=1 Pmpp=0.022047 kvar=0.047134 kVA=0.052035 %cutin=0 %cutout=0 EffCurve=myeff P-TCurve=mypvst
New Pvsystem.PV_03551374.2_from_03551371.3 phases=1 bus1=03551374.2 kv=6.93 irradiance=1 Pmpp=0.029796 kvar=-0.04266 kVA=0.052035 %cutin=0 %cutout=0 EffCurve=myeff P-TCurve=mypvst
New Pvsystem.PV_03551374.3_from_03551371.3 phases=1 bus1=03551374.3 kv=6.93 irradiance=1 Pmpp=4.2107 kvar=0.12244 kVA=4.2124 %cutin=0 %cutout=0 EffCurve=myeff P-TCurve=mypvst
New Pvsystem.PV_03551374.2_from_03551372.2 phases=1 bus1=03551374.2 kv=6.93 irradiance=1 Pmpp=3.4217 kvar=0.075209 kVA=3.4226 %cutin=0 %cutout=0 EffCurve=myeff P-TCurve=mypvst
New Pvsystem.PV_03551374.3_from_03551372.2 phases=1 bus1=03551374.3 kv=6.93 irradiance=1 Pmpp=0.013542 kvar=0.028952 kVA=0.031963 %cutin=0 %cutout=0 EffCurve=myeff P-TCurve=mypvst
New Pvsystem.PV_03551374.2_from_03551372.3 phases=1 bus1=03551374.2 kv=6.93 irradiance=1 Pmpp=0.018302 kvar=-0.026204 kVA=0.031963 %cutin=0 %cutout=0 EffCurve=myeff P-TCurve=mypvst
New Pvsystem.PV_03551374.3_from_03551372.3 phases=1 bus1=03551374.3 kv=6.93 irradiance=1 Pmpp=3.4217 kvar=0.075209 kVA=3.4226 %cutin=0 %cutout=0 EffCurve=myeff P-TCurve=mypvst
New Pvsystem.PV_03551374.2_from_03551373.2 phases=1 bus1=03551374.2 kv=6.93 irradiance=1 Pmpp=3.9123 kvar=0.027131 kVA=3.9124 %cutin=0 %cutout=0 EffCurve=myeff P-TCurve=mypvst
New Pvsystem.PV_03551374.3_from_03551373.2 phases=1 bus1=03551374.3 kv=6.93 irradiance=1 Pmpp=0 kvar=0.010444 kVA=0.010444 %cutin=0 %cutout=0 EffCurve=myeff P-TCurve=mypvst
New Pvsystem.PV_03551374.3_from_03551373.3 phases=1 bus1=03551374.3 kv=6.93 irradiance=1 Pmpp=3.9123 kvar=0.027131 kVA=3.9124 %cutin=0 %cutout=0 EffCurve=myeff P-TCurve=mypvst
New Pvsystem.PV_03551374.2_from_03551388.2 phases=1 bus1=03551374.2 kv=6.93 irradiance=1 Pmpp=4.4598 kvar=0.098025 kVA=4.4609 %cutin=0 %cutout=0 EffCurve=myeff P-TCurve=mypvst
New Pvsystem.PV_03551374.3_from_03551388.2 phases=1 bus1=03551374.3 kv=6.93 irradiance=1 Pmpp=0.017651 kvar=0.037736 kVA=0.04166 %cutin=0 %cutout=0 EffCurve=myeff P-TCurve=mypvst
New Pvsystem.PV_03551374.2_from_03551388.3 phases=1 bus1=03551374.2 kv=6.93 irradiance=1 Pmpp=0.023855 kvar=-0.034154 kVA=0.04166 %cutin=0 %cutout=0 EffCurve=myeff P-TCurve=mypvst
New Pvsystem.PV_03551374.3_from_03551388.3 phases=1 bus1=03551374.3 kv=6.93 irradiance=1 Pmpp=4.4598 kvar=0.098025 kVA=4.4609 %cutin=0 %cutout=0 EffCurve=myeff P-TCurve=mypvst
New Pvsystem.PV_03551374.2_from_03551374.2 phases=1 bus1=03551374.2 kv=6.93 irradiance=1 Pmpp=4.32 kvar=0 kVA=4.32 %cutin=0 %cutout=0 EffCurve=myeff P-TCurve=mypvst
New Pvsystem.PV_03551374.3_from_03551374.3 phases=1 bus1=03551374.3 kv=6.93 irradiance=1 Pmpp=4.32 kvar=0 kVA=4.32 %cutin=0 %cutout=0 EffCurve=myeff P-TCurve=mypvst
New Pvsystem.PV_03551374.2_from_03551378.2 phases=1 bus1=03551374.2 kv=6.93 irradiance=1 Pmpp=3.69 kvar=0 kVA=3.69 %cutin=0 %cutout=0 EffCurve=myeff P-TCurve=mypvst
New Pvsystem.PV_03551374.3_from_03551378.3 phases=1 bus1=03551374.3 kv=6.93 irradiance=1 Pmpp=3.69 kvar=0 kVA=3.69 %cutin=0 %cutout=0 EffCurve=myeff P-TCurve=mypvst
New Pvsystem.PV_03551374.2_from_03551379.2 phases=1 bus1=03551374.2 kv=6.93 irradiance=1 Pmpp=5.8888 kvar=0 kVA=5.8888 %cutin=0 %cutout=0 EffCurve=myeff P-TCurve=mypvst
...